matpower/matpower-converter/src/test/resources/ieee9_limits.xiidm
<?xml version="1.0" encoding="UTF-8"?>
<iidm:network xmlns:iidm="http://www.powsybl.org/schema/iidm/1_18" xmlns:slt="http://www.powsybl.org/schema/iidm/ext/slack_terminal/1_5" id="ieee9_limits" caseDate="2020-01-01T00:00:00.000Z" forecastDistance="0" sourceFormat="MATPOWER" minimumValidationLevel="STEADY_STATE_HYPOTHESIS">
    <iidm:substation id="SUB-1">
        <iidm:voltageLevel id="VL-1" nominalV="1.0" lowVoltageLimit="0.94" highVoltageLimit="1.06" topologyKind="BUS_BREAKER">
            <iidm:busBreakerTopology>
                <iidm:bus id="BUS-1" v="1.04" angle="0.0"/>
            </iidm:busBreakerTopology>
            <iidm:generator id="GEN-1" energySource="OTHER" minP="0.0" maxP="98.5" ratedS="100.0" targetP="71.64102" localTargetV="1.04" localTargetQ="27.04592" bus="BUS-1" connectableBus="BUS-1">
                <iidm:minMaxReactiveLimits minQ="-99990.0" maxQ="999900.0"/>
                <iidm:voltageRegulation mode="VOLTAGE" regulating="true"/>
            </iidm:generator>
        </iidm:voltageLevel>
    </iidm:substation>
    <iidm:substation id="SUB-2">
        <iidm:voltageLevel id="VL-2" nominalV="1.0" lowVoltageLimit="0.94" highVoltageLimit="1.06" topologyKind="BUS_BREAKER">
            <iidm:busBreakerTopology>
                <iidm:bus id="BUS-2" v="1.025" angle="9.28"/>
            </iidm:busBreakerTopology>
            <iidm:generator id="GEN-2" energySource="OTHER" minP="0.0" maxP="263.0" ratedS="100.0" targetP="163.0" localTargetV="1.025" localTargetQ="6.65366" bus="BUS-2" connectableBus="BUS-2">
                <iidm:minMaxReactiveLimits minQ="-99990.0" maxQ="999900.0"/>
                <iidm:voltageRegulation mode="VOLTAGE" regulating="true"/>
            </iidm:generator>
        </iidm:voltageLevel>
    </iidm:substation>
    <iidm:substation id="SUB-3">
        <iidm:voltageLevel id="VL-3" nominalV="1.0" lowVoltageLimit="0.94" highVoltageLimit="1.06" topologyKind="BUS_BREAKER">
            <iidm:busBreakerTopology>
                <iidm:bus id="BUS-3" v="1.025" angle="4.6647"/>
            </iidm:busBreakerTopology>
            <iidm:generator id="GEN-3" energySource="OTHER" minP="0.0" maxP="185.0" ratedS="100.0" targetP="85.0" localTargetV="1.025" localTargetQ="-10.8597" bus="BUS-3" connectableBus="BUS-3">
                <iidm:minMaxReactiveLimits minQ="-99990.0" maxQ="999900.0"/>
                <iidm:voltageRegulation mode="VOLTAGE" regulating="true"/>
            </iidm:generator>
        </iidm:voltageLevel>
    </iidm:substation>
    <iidm:substation id="SUB-4">
        <iidm:voltageLevel id="VL-4" nominalV="1.0" lowVoltageLimit="0.94" highVoltageLimit="1.06" topologyKind="BUS_BREAKER">
            <iidm:busBreakerTopology>
                <iidm:bus id="BUS-4" v="1.025" angle="-2.216"/>
            </iidm:busBreakerTopology>
        </iidm:voltageLevel>
    </iidm:substation>
    <iidm:substation id="SUB-5">
        <iidm:voltageLevel id="VL-5" nominalV="1.0" lowVoltageLimit="0.94" highVoltageLimit="1.06" topologyKind="BUS_BREAKER">
            <iidm:busBreakerTopology>
                <iidm:bus id="BUS-5" v="0.995" angle="-3.988"/>
            </iidm:busBreakerTopology>
            <iidm:load id="LOAD-5" loadType="UNDEFINED" p0="125.0" q0="50.0" bus="BUS-5" connectableBus="BUS-5"/>
        </iidm:voltageLevel>
    </iidm:substation>
    <iidm:substation id="SUB-6">
        <iidm:voltageLevel id="VL-6" nominalV="1.0" lowVoltageLimit="0.94" highVoltageLimit="1.06" topologyKind="BUS_BREAKER">
            <iidm:busBreakerTopology>
                <iidm:bus id="BUS-6" v="1.012" angle="-3.687"/>
            </iidm:busBreakerTopology>
            <iidm:load id="LOAD-6" loadType="UNDEFINED" p0="90.0" q0="30.0" bus="BUS-6" connectableBus="BUS-6"/>
        </iidm:voltageLevel>
    </iidm:substation>
    <iidm:substation id="SUB-7">
        <iidm:voltageLevel id="VL-7" nominalV="1.0" lowVoltageLimit="0.94" highVoltageLimit="1.06" topologyKind="BUS_BREAKER">
            <iidm:busBreakerTopology>
                <iidm:bus id="BUS-7" v="1.025" angle="3.7197"/>
            </iidm:busBreakerTopology>
        </iidm:voltageLevel>
    </iidm:substation>
    <iidm:substation id="SUB-8">
        <iidm:voltageLevel id="VL-8" nominalV="1.0" lowVoltageLimit="0.94" highVoltageLimit="1.06" topologyKind="BUS_BREAKER">
            <iidm:busBreakerTopology>
                <iidm:bus id="BUS-8" v="1.015" angle="0.7275"/>
            </iidm:busBreakerTopology>
            <iidm:load id="LOAD-8" loadType="UNDEFINED" p0="100.0" q0="35.0" bus="BUS-8" connectableBus="BUS-8"/>
        </iidm:voltageLevel>
    </iidm:substation>
    <iidm:substation id="SUB-9">
        <iidm:voltageLevel id="VL-9" nominalV="1.0" lowVoltageLimit="0.94" highVoltageLimit="1.06" topologyKind="BUS_BREAKER">
            <iidm:busBreakerTopology>
                <iidm:bus id="BUS-9" v="1.032" angle="1.9667"/>
            </iidm:busBreakerTopology>
        </iidm:voltageLevel>
    </iidm:substation>
    <iidm:line id="LINE-4-1" r="0.0" x="5.76E-4" voltageLevelId1="VL-4" bus1="BUS-4" connectableBus1="BUS-4" voltageLevelId2="VL-1" bus2="BUS-1" connectableBus2="BUS-1"/>
    <iidm:line id="LINE-7-2" r="0.0" x="6.25E-4" voltageLevelId1="VL-7" bus1="BUS-7" connectableBus1="BUS-7" voltageLevelId2="VL-2" bus2="BUS-2" connectableBus2="BUS-2"/>
    <iidm:line id="LINE-9-3" r="0.0" x="5.86E-4" voltageLevelId1="VL-9" bus1="BUS-9" connectableBus1="BUS-9" voltageLevelId2="VL-3" bus2="BUS-3" connectableBus2="BUS-3"/>
    <iidm:line id="LINE-7-8" r="8.5E-5" x="7.199999999999999E-4" b1="7.449999999999999" b2="7.449999999999999" voltageLevelId1="VL-7" bus1="BUS-7" connectableBus1="BUS-7" voltageLevelId2="VL-8" bus2="BUS-8" connectableBus2="BUS-8"/>
    <iidm:line id="LINE-9-8" r="1.19E-4" x="0.001008" b1="10.45" b2="10.45" voltageLevelId1="VL-9" bus1="BUS-9" connectableBus1="BUS-9" voltageLevelId2="VL-8" bus2="BUS-8" connectableBus2="BUS-8"/>
    <iidm:line id="LINE-7-5" r="3.2E-4" x="0.00161" b1="15.299999999999999" b2="15.299999999999999" voltageLevelId1="VL-7" bus1="BUS-7" connectableBus1="BUS-7" voltageLevelId2="VL-5" bus2="BUS-5" connectableBus2="BUS-5"/>
    <iidm:line id="LINE-9-6" r="3.9E-4" x="0.0017000000000000001" b1="17.9" b2="17.9" voltageLevelId1="VL-9" bus1="BUS-9" connectableBus1="BUS-9" voltageLevelId2="VL-6" bus2="BUS-6" connectableBus2="BUS-6"/>
    <iidm:line id="LINE-5-4" r="1.0E-4" x="8.500000000000001E-4" b1="8.799999999999999" b2="8.799999999999999" voltageLevelId1="VL-5" bus1="BUS-5" connectableBus1="BUS-5" voltageLevelId2="VL-4" bus2="BUS-4" connectableBus2="BUS-4"/>
    <iidm:line id="LINE-6-4" r="1.7E-4" x="9.2E-4" b1="7.9" b2="7.9" voltageLevelId1="VL-6" bus1="BUS-6" connectableBus1="BUS-6" voltageLevelId2="VL-4" bus2="BUS-4" connectableBus2="BUS-4" selectedOperationalLimitsGroupIds1="DEFAULT" selectedOperationalLimitsGroupIds2="DEFAULT">
        <iidm:operationalLimitsGroup1 id="DEFAULT">
            <iidm:apparentPowerLimits detectionKind="HIGH" permanentLimit="50.0">
                <iidm:temporaryLimit name="RateB" acceptableDuration="1200" value="60.0"/>
                <iidm:temporaryLimit name="RateC" acceptableDuration="60" value="70.0"/>
            </iidm:apparentPowerLimits>
        </iidm:operationalLimitsGroup1>
        <iidm:operationalLimitsGroup2 id="DEFAULT">
            <iidm:apparentPowerLimits detectionKind="HIGH" permanentLimit="50.0">
                <iidm:temporaryLimit name="RateB" acceptableDuration="1200" value="60.0"/>
                <iidm:temporaryLimit name="RateC" acceptableDuration="60" value="70.0"/>
            </iidm:apparentPowerLimits>
        </iidm:operationalLimitsGroup2>
    </iidm:line>
    <iidm:extension id="VL-1">
        <slt:slackTerminal id="GEN-1"/>
    </iidm:extension>
</iidm:network>
